LAMMPS (7 Aug 2019)
# Compute elastic constant tensor for a crystal
#
# Written by Aidan Thompson (Sandia, athomps@sandia.gov)
#
#  This script uses the following three include files.
#
#   init.mod      (must be modified for different crystal structures)
# 	       	  Define units, deformation parameters and initial
#		  configuration of the atoms and simulation cell.
#
#
#   potential.mod    (must be modified for different pair styles)
# 		     Define pair style and other attributes
#		     not stored in restart file
#
#
#   displace.mod    (displace.mod should not need to be modified)
# 		    Perform positive and negative box displacements
# 		    It uses the resultant changes
#		    in stress to compute one
# 		    row of the elastic stiffness tensor
#
#		    Inputs variables:
#		    	   dir = the Voigt deformation component
#		    		    (1,2,3,4,5,6)
#		    Global constants:
#       	    	   up = the deformation magnitude (strain units)
#       		   cfac = conversion from LAMMPS pressure units to
#               	   output units for elastic constants
#
#
#  To run this on a different system, it should only be necessary to
#  modify the files init.mod and potential.mod. In order to calculate
#  the elastic constants correctly, care must be taken to specify
#  the correct units in init.mod (units, cfac and cunits). It is also
#  important to verify that the minimization of energy w.r.t atom
#  positions in the deformed cell is fully converged.
#  One indication of this is that the elastic constants are insensitive
#  the final max and two-norm forces reported in the log file. If you know
#  that minimization is not required, you can set maxiter = 0.0 in
#  init.mod.
#

include init.mod
# NOTE: This script can be modified for different atomic structures,
# units, etc. See in.elastic for more info.
#

# Define the finite deformation size. Try several values of this
# variable to verify that results do not depend on it.
variable up equal 1.0e-6

# Define the amount of random jiggle for atoms
# This prevents atoms from staying on saddle points
variable atomjiggle equal 1.0e-5

# Uncomment one of these blocks, depending on what units
# you are using in LAMMPS and for output

# metal units, elastic constants in eV/A^3
#units		metal
#variable cfac equal 6.2414e-7
#variable cunits string eV/A^3

# metal units, elastic constants in GPa
units		metal
variable cfac equal 1.0e-4
variable cunits string GPa

# real units, elastic constants in GPa
#units		real
#variable cfac equal 1.01325e-4
#variable cunits string GPa

# Define minimization parameters
variable etol equal 0.0
variable ftol equal 1.0e-25
variable maxiter equal 5000
variable maxeval equal 10000
variable dmax equal 1.0e-2

# generate the box and atom positions using fcc lattice
variable a equal 4.0 #3.615

boundary	p p p

lattice         fcc $a
lattice         fcc 4
Lattice spacing in x,y,z = 4 4 4
region		box prism 0.0 1.0 0.0 1.0 0.0 1.0 0.0 0.0 0.0 #units lattice
create_box	1 box
Created triclinic box = (0 0 0) to (4 4 4) with tilt (0 0 0)
#lattice	        fcc $a orient x 1 0 0 orient y 0 1 0 orient z 0 0 1
create_atoms	1 box
Created 4 atoms

# Need to set mass to something, just to satisfy LAMMPS
mass 1 195.084 #Au

include potential.mod
# NOTE: This script can be modified for different pair styles
# See in.elastic for more info.

### Choose potential ###
pair_style	smatb
#pair_coeff 1 1 2.7662 10.7960 3.1976 0.1993 2.2318 4.8745 5.6286
#pair_coeff  id1 id2 atomDiameter p q A Xi cut_start cut_end
pair_coeff 1 1 2.885 10.295370 4.02006 0.205932 1.80239 4.08000612 5.770

# Setup neighbor style
#neighbor 1.0 nsq
#neigh_modify once no every 1 delay 0 check yes

# Setup minimization style
min_style	     cg
min_modify	     dmax 0.01 line quadratic

# Setup output
thermo		1
thermo_style custom step temp pe press pxx pyy pzz pxy pxz pyz lx ly lz vol
thermo_modify norm no

# Compute initial state
fix 3 all box/relax  aniso 0.0
minimize 0 1e-25 5000 10000
  update every 1 steps, delay 0 steps, check yes
Step Temp PotEng Press Pxx Pyy Pzz Pxy Pxz Pyz Lx Ly Lz Volume
0            0   -15.099691    120095.26    120095.26    120095.26    120095.26 -8.2945725e-12 -2.8227603e-12 -3.2570311e-12            4            4            4           64
Averages over the last 2501 of 5001 rows, steps 2500 to 5000:
Temp PotEng Press Pxx Pyy Pzz Pxy Pxz Pyz Lx Ly Lz Volume
0 -15.2402 2.93338e-12 4.3758e-12 -5.73028e-13 4.99737e-12 6.25738e-12 7.51671e-12 3.34445e-13 4.08204 4.08204 4.08204 68.0191
Loop time of 0.241832 on 1 procs for 5000 steps with 4 atoms

Minimization stats:
  Stopping criterion = max iterations
  Energy initial, next-to-last, final =
  Force two-norm initial, final = 8.30914 2.03778e-14
  Force max component initial, final = 4.79728 1.37604e-14
  Final line search alpha, max atom move = 1 1.37604e-14
  Iterations, force evaluations = 5000 9795

variable tmp equal pxx
variable pxx0 equal 2.52582851088641e-10
variable tmp equal pyy
variable pyy0 equal 2.53052753666902e-10
variable tmp equal pzz
variable pzz0 equal 3.30770554001869e-10
variable tmp equal pyz
variable pyz0 equal 6.94638593950805e-13
variable tmp equal pxz
variable pxz0 equal -6.94638593950805e-13
variable tmp equal pxy
variable pxy0 equal 2.96855846179565e-11

variable tmp equal lx
variable lx0 equal 4.08203642042074
variable tmp equal ly
variable ly0 equal 4.08203642042074
variable tmp equal lz
variable lz0 equal 4.08203642042074

# These formulas define the derivatives w.r.t. strain components
# Constants uses $, variables use v_
variable d1 equal -(v_pxx1-2.52582851088641e-10)/(v_delta/v_len0)*0.0001
variable d2 equal -(v_pyy1-2.53052753666902e-10)/(v_delta/v_len0)*0.0001
variable d3 equal -(v_pzz1-3.30770554001869e-10)/(v_delta/v_len0)*0.0001
variable d4 equal -(v_pyz1-6.94638593950805e-13)/(v_delta/v_len0)*0.0001
variable d5 equal -(v_pxz1--6.94638593950805e-13)/(v_delta/v_len0)*0.0001
variable d6 equal -(v_pxy1-2.96855846179565e-11)/(v_delta/v_len0)*0.0001

displace_atoms all random 1e-05 1e-05 1e-05 87287 units box

# Write restart
unfix 3
write_restart restart.equil

# uxx Perturbation

variable dir equal 1
include displace.mod
# NOTE: This script should not need to be
# modified. See in.elastic for more info.
#
# Find which reference length to use

variable len0 equal 4.08203642042074

# Reset box and simulation parameters

clear
box tilt large
read_restart restart.equil
  restoring atom style atomic from restart
  triclinic box = (-0.0410182 -0.0410182 -0.0410182) to (4.04102 4.04102 4.04102) with tilt (0 0 0)
  restoring pair style smatb from restart
  4 atoms
  read_restart CPU = 0.00165723 secs
include potential.mod
# NOTE: This script can be modified for different pair styles
# See in.elastic for more info.

### Choose potential ###
pair_style	smatb
#pair_coeff 1 1 2.7662 10.7960 3.1976 0.1993 2.2318 4.8745 5.6286
#pair_coeff  id1 id2 atomDiameter p q A Xi cut_start cut_end
pair_coeff 1 1 2.885 10.295370 4.02006 0.205932 1.80239 4.08000612 5.770

# Setup neighbor style
#neighbor 1.0 nsq
#neigh_modify once no every 1 delay 0 check yes

# Setup minimization style
min_style	     cg
min_modify	     dmax 0.01 line quadratic

# Setup output
thermo		1
thermo_style custom step temp pe press pxx pyy pzz pxy pxz pyz lx ly lz vol
thermo_modify norm no

# Negative deformation

variable delta equal -1e-06*4.08203642042074
variable deltaxy equal -1e-06*xy
variable deltaxz equal -1e-06*xz
variable deltayz equal -1e-06*yz
change_box all x delta 0 -4.08203642042074e-06 xy delta -0 xz delta -0 remap units box
  triclinic box = (-0.0410182 -0.0410182 -0.0410182) to (4.04101 4.04102 4.04102) with tilt (0 0 0)
  triclinic box = (-0.0410182 -0.0410182 -0.0410182) to (4.04101 4.04102 4.04102) with tilt (0 0 0)
  triclinic box = (-0.0410182 -0.0410182 -0.0410182) to (4.04101 4.04102 4.04102) with tilt (0 0 0)

# Relax atoms positions

minimize 0 1e-25 5000 10000
  update every 1 steps, delay 0 steps, check yes
Step Temp PotEng Press Pxx Pyy Pzz Pxy Pxz Pyz Lx Ly Lz Volume
5000            0   -15.240188     1.647921    1.8643353      1.53972    1.5397077 -2.0793948e-05 -4.0490888e-07 -3.6258276e-06    4.0820323    4.0820364    4.0820364    68.018992
Loop time of 0.000409589 on 1 procs for 10 steps with 4 atoms

Minimization stats:
  Stopping criterion = quadratic factors are zero
  Energy initial, next-to-last, final =
  Force two-norm initial, final = 6.10863e-05 3.55005e-15
  Force max component initial, final = 3.27971e-05 2.32453e-15
  Final line search alpha, max atom move = 1 2.32453e-15
  Iterations, force evaluations = 10 20

# Obtain new stress tensor

variable tmp equal pxx
variable pxx1 equal 1.86428829886868
variable tmp equal pyy
variable pyy1 equal 1.53966522902812
variable tmp equal pzz
variable pzz1 equal 1.53966522901041
variable tmp equal pxy
variable pxy1 equal -5.31194750098307e-12
variable tmp equal pxz
variable pxz1 equal 5.43453090485191e-12
variable tmp equal pyz
variable pyz1 equal 1.8387510580326e-12

# Compute elastic constant from pressure tensor

variable C1neg equal 186.42882986161
variable C2neg equal 153.966522877507
variable C3neg equal 153.966522867964
variable C4neg equal 1.1441124640818e-10
variable C5neg equal 6.12916949880272e-10
variable C6neg equal -3.49975321189396e-09

# Reset box and simulation parameters

clear
box tilt large
read_restart restart.equil
  restoring atom style atomic from restart
  triclinic box = (-0.0410182 -0.0410182 -0.0410182) to (4.04102 4.04102 4.04102) with tilt (0 0 0)
  restoring pair style smatb from restart
  4 atoms
  read_restart CPU = 0.000255407 secs
include potential.mod
# NOTE: This script can be modified for different pair styles
# See in.elastic for more info.

### Choose potential ###
pair_style	smatb
#pair_coeff 1 1 2.7662 10.7960 3.1976 0.1993 2.2318 4.8745 5.6286
#pair_coeff  id1 id2 atomDiameter p q A Xi cut_start cut_end
pair_coeff 1 1 2.885 10.295370 4.02006 0.205932 1.80239 4.08000612 5.770

# Setup neighbor style
#neighbor 1.0 nsq
#neigh_modify once no every 1 delay 0 check yes

# Setup minimization style
min_style	     cg
min_modify	     dmax 0.01 line quadratic

# Setup output
thermo		1
thermo_style custom step temp pe press pxx pyy pzz pxy pxz pyz lx ly lz vol
thermo_modify norm no

# Positive deformation

variable delta equal 1e-06*4.08203642042074
variable deltaxy equal 1e-06*xy
variable deltaxz equal 1e-06*xz
variable deltayz equal 1e-06*yz
change_box all x delta 0 4.08203642042074e-06 xy delta 0 xz delta 0 remap units box
  triclinic box = (-0.0410182 -0.0410182 -0.0410182) to (4.04102 4.04102 4.04102) with tilt (0 0 0)
  triclinic box = (-0.0410182 -0.0410182 -0.0410182) to (4.04102 4.04102 4.04102) with tilt (0 0 0)
  triclinic box = (-0.0410182 -0.0410182 -0.0410182) to (4.04102 4.04102 4.04102) with tilt (0 0 0)

# Relax atoms positions

minimize 0 1e-25 5000 10000
  update every 1 steps, delay 0 steps, check yes
Step Temp PotEng Press Pxx Pyy Pzz Pxy Pxz Pyz Lx Ly Lz Volume
5000            0   -15.240188   -1.6478127   -1.8642287   -1.5395985   -1.5396109 -2.0793548e-05 -4.0494656e-07 -3.6258209e-06    4.0820405    4.0820364    4.0820364    68.019128
Loop time of 0.000234664 on 1 procs for 7 steps with 4 atoms

Minimization stats:
  Stopping criterion = quadratic factors are zero
  Energy initial, next-to-last, final =
  Force two-norm initial, final = 6.10853e-05 3.16433e-15
  Force max component initial, final = 3.27967e-05 2.05391e-15
  Final line search alpha, max atom move = 1 2.05391e-15
  Iterations, force evaluations = 7 14

# Obtain new stress tensor

variable tmp equal pe
variable e1 equal -15.2401876839192
variable tmp equal press
variable p1 equal -1.64786076656
variable tmp equal pxx
variable pxx1 equal -1.8642756925655
variable tmp equal pyy
variable pyy1 equal -1.53965330362997
variable tmp equal pzz
variable pzz1 equal -1.53965330348454
variable tmp equal pxy
variable pxy1 equal 4.9033263480911e-13
variable tmp equal pxz
variable pxz1 equal 4.08610529007592e-14
variable tmp equal pyz
variable pyz1 equal 8.17221058015183e-14

# Compute elastic constant from pressure tensor

variable C1pos equal 186.427569281808
variable C2pos equal 153.965330388302
variable C3pos equal 153.965330381531
variable C4pos equal 6.12916488149287e-11
variable C5pos equal -7.35499646851564e-11
variable C6pos equal 2.91952519831474e-09

# Combine positive and negative

variable C11 equal 0.5*(186.42882986161+186.427569281808)
variable C21 equal 0.5*(153.966522877507+153.965330388302)
variable C31 equal 0.5*(153.966522867964+153.965330381531)
variable C41 equal 0.5*(1.1441124640818e-10+6.12916488149287e-11)
variable C51 equal 0.5*(6.12916949880272e-10+-7.35499646851564e-11)
variable C61 equal 0.5*(-3.49975321189396e-09+2.91952519831474e-09)

# Delete dir to make sure it is not reused

variable dir delete

# uyy Perturbation

variable dir equal 2
include displace.mod
# NOTE: This script should not need to be
# modified. See in.elastic for more info.
#
# Find which reference length to use

variable len0 equal 4.08203642042074

# Reset box and simulation parameters

clear
box tilt large
read_restart restart.equil
  restoring atom style atomic from restart
  triclinic box = (-0.0410182 -0.0410182 -0.0410182) to (4.04102 4.04102 4.04102) with tilt (0 0 0)
  restoring pair style smatb from restart
  4 atoms
  read_restart CPU = 0.000126921 secs
include potential.mod
# NOTE: This script can be modified for different pair styles
# See in.elastic for more info.

### Choose potential ###
pair_style	smatb
#pair_coeff 1 1 2.7662 10.7960 3.1976 0.1993 2.2318 4.8745 5.6286
#pair_coeff  id1 id2 atomDiameter p q A Xi cut_start cut_end
pair_coeff 1 1 2.885 10.295370 4.02006 0.205932 1.80239 4.08000612 5.770

# Setup neighbor style
#neighbor 1.0 nsq
#neigh_modify once no every 1 delay 0 check yes

# Setup minimization style
min_style	     cg
min_modify	     dmax 0.01 line quadratic

# Setup output
thermo		1
thermo_style custom step temp pe press pxx pyy pzz pxy pxz pyz lx ly lz vol
thermo_modify norm no

# Negative deformation

variable delta equal -1e-06*4.08203642042074
variable deltaxy equal -1e-06*xy
variable deltaxz equal -1e-06*xz
variable deltayz equal -1e-06*yz
change_box all y delta 0 -4.08203642042074e-06 yz delta -0 remap units box
  triclinic box = (-0.0410182 -0.0410182 -0.0410182) to (4.04102 4.04101 4.04102) with tilt (0 0 0)
  triclinic box = (-0.0410182 -0.0410182 -0.0410182) to (4.04102 4.04101 4.04102) with tilt (0 0 0)

# Relax atoms positions

minimize 0 1e-25 5000 10000
  update every 1 steps, delay 0 steps, check yes
Step Temp PotEng Press Pxx Pyy Pzz Pxy Pxz Pyz Lx Ly Lz Volume
5000            0   -15.240188     1.647921    1.5397122    1.8643431    1.5397077 -2.0793907e-05 -4.0482487e-07 -3.6258445e-06    4.0820364    4.0820323    4.0820364    68.018992
Loop time of 0.000406693 on 1 procs for 12 steps with 4 atoms

Minimization stats:
  Stopping criterion = quadratic factors are zero
  Energy initial, next-to-last, final =
  Force two-norm initial, final = 6.10864e-05 1.24804e-15
  Force max component initial, final = 3.27972e-05 6.48136e-16
  Final line search alpha, max atom move = 1 6.48136e-16
  Iterations, force evaluations = 12 24

# Obtain new stress tensor

variable tmp equal pxx
variable pxx1 equal 1.53966522884002
variable tmp equal pyy
variable pyy1 equal 1.86428829876072
variable tmp equal pzz
variable pzz1 equal 1.53966522899533
variable tmp equal pxy
variable pxy1 equal 2.63554318318006e-12
variable tmp equal pxz
variable pxz1 equal 4.08611346229467e-14
variable tmp equal pyz
variable pyz1 equal -2.71317933896366e-11

# Compute elastic constant from pressure tensor

variable C1neg equal 153.966522858744
variable C2neg equal 186.428829850767
variable C3neg equal 153.966522866456
variable C4neg equal -2.78264319835874e-09
variable C5neg equal 7.35499728573752e-11
variable C6neg equal -2.70500414347764e-09

# Reset box and simulation parameters

clear
box tilt large
read_restart restart.equil
  restoring atom style atomic from restart
  triclinic box = (-0.0410182 -0.0410182 -0.0410182) to (4.04102 4.04102 4.04102) with tilt (0 0 0)
  restoring pair style smatb from restart
  4 atoms
  read_restart CPU = 0.000177357 secs
include potential.mod
# NOTE: This script can be modified for different pair styles
# See in.elastic for more info.

### Choose potential ###
pair_style	smatb
#pair_coeff 1 1 2.7662 10.7960 3.1976 0.1993 2.2318 4.8745 5.6286
#pair_coeff  id1 id2 atomDiameter p q A Xi cut_start cut_end
pair_coeff 1 1 2.885 10.295370 4.02006 0.205932 1.80239 4.08000612 5.770

# Setup neighbor style
#neighbor 1.0 nsq
#neigh_modify once no every 1 delay 0 check yes

# Setup minimization style
min_style	     cg
min_modify	     dmax 0.01 line quadratic

# Setup output
thermo		1
thermo_style custom step temp pe press pxx pyy pzz pxy pxz pyz lx ly lz vol
thermo_modify norm no

# Positive deformation

variable delta equal 1e-06*4.08203642042074
variable deltaxy equal 1e-06*xy
variable deltaxz equal 1e-06*xz
variable deltayz equal 1e-06*yz
change_box all y delta 0 4.08203642042074e-06 yz delta 0 remap units box
  triclinic box = (-0.0410182 -0.0410182 -0.0410182) to (4.04102 4.04102 4.04102) with tilt (0 0 0)
  triclinic box = (-0.0410182 -0.0410182 -0.0410182) to (4.04102 4.04102 4.04102) with tilt (0 0 0)

# Relax atoms positions

minimize 0 1e-25 5000 10000
  update every 1 steps, delay 0 steps, check yes
Step Temp PotEng Press Pxx Pyy Pzz Pxy Pxz Pyz Lx Ly Lz Volume
5000            0   -15.240188   -1.6478127   -1.5396063   -1.8642209   -1.5396109 -2.0793576e-05 -4.0486014e-07 -3.6257263e-06    4.0820364    4.0820405    4.0820364    68.019128
Loop time of 0.000246827 on 1 procs for 7 steps with 4 atoms

Minimization stats:
  Stopping criterion = quadratic factors are zero
  Energy initial, next-to-last, final =
  Force two-norm initial, final = 6.10852e-05 3.3414e-15
  Force max component initial, final = 3.27966e-05 2.27032e-15
  Final line search alpha, max atom move = 1 2.27032e-15
  Iterations, force evaluations = 7 14

# Obtain new stress tensor

variable tmp equal pe
variable e1 equal -15.2401876839192
variable tmp equal press
variable p1 equal -1.64786076678447
variable tmp equal pxx
variable pxx1 equal -1.53965330378927
variable tmp equal pyy
variable pyy1 equal -1.86427569281475
variable tmp equal pzz
variable pzz1 equal -1.53965330374941
variable tmp equal pxy
variable pxy1 equal 1.83874738053416e-12
variable tmp equal pxz
variable pxz1 equal -3.18716212625921e-12
variable tmp equal pyz
variable pyz1 equal 2.6804850702898e-11

# Compute elastic constant from pressure tensor

variable C1pos equal 153.965330404185
variable C2pos equal 186.42756930678
variable C3pos equal 153.965330408018
variable C4pos equal -2.61102121089472e-09
variable C5pos equal 2.4925235323084e-10
variable C6pos equal 2.78468372374223e-09

# Combine positive and negative

variable C12 equal 0.5*(153.966522858744+153.965330404185)
variable C22 equal 0.5*(186.428829850767+186.42756930678)
variable C32 equal 0.5*(153.966522866456+153.965330408018)
variable C42 equal 0.5*(-2.78264319835874e-09+-2.61102121089472e-09)
variable C52 equal 0.5*(7.35499728573752e-11+2.4925235323084e-10)
variable C62 equal 0.5*(-2.70500414347764e-09+2.78468372374223e-09)

# Delete dir to make sure it is not reused

variable dir delete

# uzz Perturbation

variable dir equal 3
include displace.mod
# NOTE: This script should not need to be
# modified. See in.elastic for more info.
#
# Find which reference length to use

variable len0 equal 4.08203642042074

# Reset box and simulation parameters

clear
box tilt large
read_restart restart.equil
  restoring atom style atomic from restart
  triclinic box = (-0.0410182 -0.0410182 -0.0410182) to (4.04102 4.04102 4.04102) with tilt (0 0 0)
  restoring pair style smatb from restart
  4 atoms
  read_restart CPU = 0.000111061 secs
include potential.mod
# NOTE: This script can be modified for different pair styles
# See in.elastic for more info.

### Choose potential ###
pair_style	smatb
#pair_coeff 1 1 2.7662 10.7960 3.1976 0.1993 2.2318 4.8745 5.6286
#pair_coeff  id1 id2 atomDiameter p q A Xi cut_start cut_end
pair_coeff 1 1 2.885 10.295370 4.02006 0.205932 1.80239 4.08000612 5.770

# Setup neighbor style
#neighbor 1.0 nsq
#neigh_modify once no every 1 delay 0 check yes

# Setup minimization style
min_style	     cg
min_modify	     dmax 0.01 line quadratic

# Setup output
thermo		1
thermo_style custom step temp pe press pxx pyy pzz pxy pxz pyz lx ly lz vol
thermo_modify norm no

# Negative deformation

variable delta equal -1e-06*4.08203642042074
variable deltaxy equal -1e-06*xy
variable deltaxz equal -1e-06*xz
variable deltayz equal -1e-06*yz
change_box all z delta 0 -4.08203642042074e-06 remap units box
  triclinic box = (-0.0410182 -0.0410182 -0.0410182) to (4.04102 4.04102 4.04101) with tilt (0 0 0)

# Relax atoms positions

minimize 0 1e-25 5000 10000
  update every 1 steps, delay 0 steps, check yes
Step Temp PotEng Press Pxx Pyy Pzz Pxy Pxz Pyz Lx Ly Lz Volume
5000            0   -15.240188     1.647921    1.5397122      1.53972    1.8643307 -2.0793818e-05 -4.0486058e-07 -3.6258887e-06    4.0820364    4.0820364    4.0820323    68.018992
Loop time of 0.000321481 on 1 procs for 10 steps with 4 atoms

Minimization stats:
  Stopping criterion = quadratic factors are zero
  Energy initial, next-to-last, final =
  Force two-norm initial, final = 6.10863e-05 6.78887e-17
  Force max component initial, final = 3.27972e-05 4.40186e-17
  Final line search alpha, max atom move = 1 4.40186e-17
  Iterations, force evaluations = 10 20

# Obtain new stress tensor

variable tmp equal pxx
variable pxx1 equal 1.53966522890811
variable tmp equal pyy
variable pyy1 equal 1.53966522890188
variable tmp equal pzz
variable pzz1 equal 1.86428829904409
variable tmp equal pxy
variable pxy1 equal -2.28822353888501e-12
variable tmp equal pxz
variable pxz1 equal 8.17222692458934e-14
variable tmp equal pyz
variable pyz1 equal 2.12477900039323e-12

# Compute elastic constant from pressure tensor

variable C1neg equal 153.966522865553
variable C2neg equal 153.966522864883
variable C3neg equal 186.428829871332
variable C4neg equal 1.43014040644242e-10
variable C5neg equal 7.76360863196699e-11
variable C6neg equal -3.19738081568415e-09

# Reset box and simulation parameters

clear
box tilt large
read_restart restart.equil
  restoring atom style atomic from restart
  triclinic box = (-0.0410182 -0.0410182 -0.0410182) to (4.04102 4.04102 4.04102) with tilt (0 0 0)
  restoring pair style smatb from restart
  4 atoms
  read_restart CPU = 0.000155337 secs
include potential.mod
# NOTE: This script can be modified for different pair styles
# See in.elastic for more info.

### Choose potential ###
pair_style	smatb
#pair_coeff 1 1 2.7662 10.7960 3.1976 0.1993 2.2318 4.8745 5.6286
#pair_coeff  id1 id2 atomDiameter p q A Xi cut_start cut_end
pair_coeff 1 1 2.885 10.295370 4.02006 0.205932 1.80239 4.08000612 5.770

# Setup neighbor style
#neighbor 1.0 nsq
#neigh_modify once no every 1 delay 0 check yes

# Setup minimization style
min_style	     cg
min_modify	     dmax 0.01 line quadratic

# Setup output
thermo		1
thermo_style custom step temp pe press pxx pyy pzz pxy pxz pyz lx ly lz vol
thermo_modify norm no

# Positive deformation

variable delta equal 1e-06*4.08203642042074
variable deltaxy equal 1e-06*xy
variable deltaxz equal 1e-06*xz
variable deltayz equal 1e-06*yz
change_box all z delta 0 4.08203642042074e-06 remap units box
  triclinic box = (-0.0410182 -0.0410182 -0.0410182) to (4.04102 4.04102 4.04102) with tilt (0 0 0)

# Relax atoms positions

minimize 0 1e-25 5000 10000
  update every 1 steps, delay 0 steps, check yes
Step Temp PotEng Press Pxx Pyy Pzz Pxy Pxz Pyz Lx Ly Lz Volume
5000            0   -15.240188   -1.6478127   -1.5396063   -1.5395985   -1.8642333 -2.0793741e-05 -4.0487088e-07 -3.6258113e-06    4.0820364    4.0820364    4.0820405    68.019128
Loop time of 0.000279616 on 1 procs for 7 steps with 4 atoms

Minimization stats:
  Stopping criterion = quadratic factors are zero
  Energy initial, next-to-last, final =
  Force two-norm initial, final = 6.10853e-05 3.55007e-15
  Force max component initial, final = 3.27966e-05 2.30371e-15
  Final line search alpha, max atom move = 1 2.30371e-15
  Iterations, force evaluations = 7 14

# Obtain new stress tensor

variable tmp equal pe
variable e1 equal -15.2401876839192
variable tmp equal press
variable p1 equal -1.64786076685997
variable tmp equal pxx
variable pxx1 equal -1.53965330395868
variable tmp equal pyy
variable pyy1 equal -1.5396533039182
variable tmp equal pzz
variable pzz1 equal -1.86427569270304
variable tmp equal pxy
variable pxy1 equal -4.08610529007592e-13
variable tmp equal pxz
variable pxz1 equal -3.95126381550341e-11
variable tmp equal pyz
variable pyz1 equal -1.63444211603037e-13

# Compute elastic constant from pressure tensor

variable C1pos equal 153.965330421126
variable C2pos equal 153.965330417125
variable C3pos equal 186.427569303381
variable C4pos equal 8.58082805553842e-11
variable C5pos equal 3.88179995610833e-09
variable C6pos equal 3.00941951469641e-09

# Combine positive and negative

variable C13 equal 0.5*(153.966522865553+153.965330421126)
variable C23 equal 0.5*(153.966522864883+153.965330417125)
variable C33 equal 0.5*(186.428829871332+186.427569303381)
variable C43 equal 0.5*(1.43014040644242e-10+8.58082805553842e-11)
variable C53 equal 0.5*(7.76360863196699e-11+3.88179995610833e-09)
variable C63 equal 0.5*(-3.19738081568415e-09+3.00941951469641e-09)

# Delete dir to make sure it is not reused

variable dir delete

# uyz Perturbation

variable dir equal 4
include displace.mod
# NOTE: This script should not need to be
# modified. See in.elastic for more info.
#
# Find which reference length to use

variable len0 equal 4.08203642042074

# Reset box and simulation parameters

clear
box tilt large
read_restart restart.equil
  restoring atom style atomic from restart
  triclinic box = (-0.0410182 -0.0410182 -0.0410182) to (4.04102 4.04102 4.04102) with tilt (0 0 0)
  restoring pair style smatb from restart
  4 atoms
  read_restart CPU = 0.000156699 secs
include potential.mod
# NOTE: This script can be modified for different pair styles
# See in.elastic for more info.

### Choose potential ###
pair_style	smatb
#pair_coeff 1 1 2.7662 10.7960 3.1976 0.1993 2.2318 4.8745 5.6286
#pair_coeff  id1 id2 atomDiameter p q A Xi cut_start cut_end
pair_coeff 1 1 2.885 10.295370 4.02006 0.205932 1.80239 4.08000612 5.770

# Setup neighbor style
#neighbor 1.0 nsq
#neigh_modify once no every 1 delay 0 check yes

# Setup minimization style
min_style	     cg
min_modify	     dmax 0.01 line quadratic

# Setup output
thermo		1
thermo_style custom step temp pe press pxx pyy pzz pxy pxz pyz lx ly lz vol
thermo_modify norm no

# Negative deformation

variable delta equal -1e-06*4.08203642042074
variable deltaxy equal -1e-06*xy
variable deltaxz equal -1e-06*xz
variable deltayz equal -1e-06*yz
change_box all yz delta -4.08203642042074e-06 remap units box
  triclinic box = (-0.0410182 -0.0410182 -0.0410182) to (4.04102 4.04102 4.04102) with tilt (0 0 -4.08204e-06)

# Relax atoms positions

minimize 0 1e-25 5000 10000
  update every 1 steps, delay 0 steps, check yes
Step Temp PotEng Press Pxx Pyy Pzz Pxy Pxz Pyz Lx Ly Lz Volume
5000            0   -15.240188 4.9727136e-05 4.7400709e-05 5.670227e-05 4.507843e-05 -2.0793726e-05 -4.0483974e-07   0.44494382    4.0820364    4.0820364    4.0820364     68.01906
Loop time of 0.000390674 on 1 procs for 10 steps with 4 atoms

Minimization stats:
  Stopping criterion = quadratic factors are zero
  Energy initial, next-to-last, final =
  Force two-norm initial, final = 6.10857e-05 2.01857e-15
  Force max component initial, final = 3.27969e-05 1.32696e-15
  Final line search alpha, max atom move = 1 1.32696e-15
  Iterations, force evaluations = 10 20

# Obtain new stress tensor

variable tmp equal pxx
variable pxx1 equal 3.83471374417181e-07
variable tmp equal pyy
variable pyy1 equal 1.92656158938599e-06
variable tmp equal pzz
variable pzz1 equal 2.65418440233196e-06
variable tmp equal pxy
variable pxy1 equal 1.85917976616245e-12
variable tmp equal pxz
variable pxz1 equal -9.39805156521677e-13
variable tmp equal pyz
variable pyz1 equal 0.444947450158902

# Compute elastic constant from pressure tensor

variable C1neg equal 3.83218791566092e-05
variable C2neg equal 0.000192630853663232
variable C3neg equal 0.000265385363177796
variable C4neg equal 44.4947450158207
variable C5neg equal -2.45166562570872e-11
variable C6neg equal -2.78264048517941e-09

# Reset box and simulation parameters

clear
box tilt large
read_restart restart.equil
  restoring atom style atomic from restart
  triclinic box = (-0.0410182 -0.0410182 -0.0410182) to (4.04102 4.04102 4.04102) with tilt (0 0 0)
  restoring pair style smatb from restart
  4 atoms
  read_restart CPU = 0.000225426 secs
include potential.mod
# NOTE: This script can be modified for different pair styles
# See in.elastic for more info.

### Choose potential ###
pair_style	smatb
#pair_coeff 1 1 2.7662 10.7960 3.1976 0.1993 2.2318 4.8745 5.6286
#pair_coeff  id1 id2 atomDiameter p q A Xi cut_start cut_end
pair_coeff 1 1 2.885 10.295370 4.02006 0.205932 1.80239 4.08000612 5.770

# Setup neighbor style
#neighbor 1.0 nsq
#neigh_modify once no every 1 delay 0 check yes

# Setup minimization style
min_style	     cg
min_modify	     dmax 0.01 line quadratic

# Setup output
thermo		1
thermo_style custom step temp pe press pxx pyy pzz pxy pxz pyz lx ly lz vol
thermo_modify norm no

# Positive deformation

variable delta equal 1e-06*4.08203642042074
variable deltaxy equal 1e-06*xy
variable deltaxz equal 1e-06*xz
variable deltayz equal 1e-06*yz
change_box all yz delta 4.08203642042074e-06 remap units box
  triclinic box = (-0.0410182 -0.0410182 -0.0410182) to (4.04102 4.04102 4.04102) with tilt (0 0 4.08204e-06)

# Relax atoms positions

minimize 0 1e-25 5000 10000
  update every 1 steps, delay 0 steps, check yes
Step Temp PotEng Press Pxx Pyy Pzz Pxy Pxz Pyz Lx Ly Lz Volume
5000            0   -15.240188 4.9727238e-05 4.7400862e-05 5.6702393e-05 4.507846e-05 -2.0793701e-05 -4.0485139e-07  -0.44495108    4.0820364    4.0820364    4.0820364     68.01906
Loop time of 0.000476592 on 1 procs for 12 steps with 4 atoms

Minimization stats:
  Stopping criterion = quadratic factors are zero
  Energy initial, next-to-last, final =
  Force two-norm initial, final = 6.10858e-05 1.65031e-15
  Force max component initial, final = 3.27969e-05 1.15663e-15
  Final line search alpha, max atom move = 1 1.15663e-15
  Iterations, force evaluations = 12 24

# Obtain new stress tensor

variable tmp equal pe
variable e1 equal -15.2401876839493
variable tmp equal press
variable p1 equal 1.65470944327061e-06
variable tmp equal pxx
variable pxx1 equal 3.83462058087804e-07
variable tmp equal pyy
variable pyy1 equal 1.92652362942989e-06
variable tmp equal pzz
variable pzz1 equal 2.65414264229413e-06
variable tmp equal pxy
variable pxy1 equal -1.18497171909255e-12
variable tmp equal pxz
variable pxz1 equal -7.76360781474429e-13
variable tmp equal pyz
variable pyz1 equal -0.444947450213493

# Compute elastic constant from pressure tensor

variable C1pos equal -3.83209475236715e-05
variable C2pos equal -0.000192627057667622
variable C3pos equal -0.000265381187174013
variable C4pos equal 44.4947450214188
variable C5pos equal 8.1722187523624e-12
variable C6pos equal 3.08705563370491e-09

# Combine positive and negative

variable C14 equal 0.5*(3.83218791566092e-05+-3.83209475236715e-05)
variable C24 equal 0.5*(0.000192630853663232+-0.000192627057667622)
variable C34 equal 0.5*(0.000265385363177796+-0.000265381187174013)
variable C44 equal 0.5*(44.4947450158207+44.4947450214188)
variable C54 equal 0.5*(-2.45166562570872e-11+8.1722187523624e-12)
variable C64 equal 0.5*(-2.78264048517941e-09+3.08705563370491e-09)

# Delete dir to make sure it is not reused

variable dir delete

# uxz Perturbation

variable dir equal 5
include displace.mod
# NOTE: This script should not need to be
# modified. See in.elastic for more info.
#
# Find which reference length to use

variable len0 equal 4.08203642042074

# Reset box and simulation parameters

clear
box tilt large
read_restart restart.equil
  restoring atom style atomic from restart
  triclinic box = (-0.0410182 -0.0410182 -0.0410182) to (4.04102 4.04102 4.04102) with tilt (0 0 0)
  restoring pair style smatb from restart
  4 atoms
  read_restart CPU = 0.000165314 secs
include potential.mod
# NOTE: This script can be modified for different pair styles
# See in.elastic for more info.

### Choose potential ###
pair_style	smatb
#pair_coeff 1 1 2.7662 10.7960 3.1976 0.1993 2.2318 4.8745 5.6286
#pair_coeff  id1 id2 atomDiameter p q A Xi cut_start cut_end
pair_coeff 1 1 2.885 10.295370 4.02006 0.205932 1.80239 4.08000612 5.770

# Setup neighbor style
#neighbor 1.0 nsq
#neigh_modify once no every 1 delay 0 check yes

# Setup minimization style
min_style	     cg
min_modify	     dmax 0.01 line quadratic

# Setup output
thermo		1
thermo_style custom step temp pe press pxx pyy pzz pxy pxz pyz lx ly lz vol
thermo_modify norm no

# Negative deformation

variable delta equal -1e-06*4.08203642042074
variable deltaxy equal -1e-06*xy
variable deltaxz equal -1e-06*xz
variable deltayz equal -1e-06*yz
change_box all xz delta -4.08203642042074e-06 remap units box
  triclinic box = (-0.0410182 -0.0410182 -0.0410182) to (4.04102 4.04102 4.04102) with tilt (0 -4.08204e-06 0)

# Relax atoms positions

minimize 0 1e-25 5000 10000
  update every 1 steps, delay 0 steps, check yes
Step Temp PotEng Press Pxx Pyy Pzz Pxy Pxz Pyz Lx Ly Lz Volume
5000            0   -15.240188 4.9727327e-05 4.8943973e-05 5.5159359e-05 4.507865e-05 -2.079375e-05   0.44494705 -3.6258566e-06    4.0820364    4.0820364    4.0820364     68.01906
Loop time of 0.000356536 on 1 procs for 9 steps with 4 atoms

Minimization stats:
  Stopping criterion = quadratic factors are zero
  Energy initial, next-to-last, final =
  Force two-norm initial, final = 6.10858e-05 8.09552e-16
  Force max component initial, final = 3.27969e-05 5.7853e-16
  Final line search alpha, max atom move = 1 5.7853e-16
  Iterations, force evaluations = 9 18

# Obtain new stress tensor

variable tmp equal pxx
variable pxx1 equal 1.92657815855951e-06
variable tmp equal pyy
variable pyy1 equal 3.8347092494515e-07
variable tmp equal pzz
variable pzz1 equal 2.65419371866133e-06
variable tmp equal pxy
variable pxy1 equal -2.61511000075597e-12
variable tmp equal pxz
variable pxz1 equal 0.444947450226241
variable tmp equal pyz
variable pyz1 equal 2.32908234442329e-12

# Compute elastic constant from pressure tensor

variable C1neg equal 0.000192632557570842
variable C2neg equal 3.83217872191483e-05
variable C3neg equal 0.000265386294810733
variable C4neg equal 1.63444375047248e-10
variable C5neg equal 44.4947450226936
variable C6neg equal -3.23006946187125e-09

# Reset box and simulation parameters

clear
box tilt large
read_restart restart.equil
  restoring atom style atomic from restart
  triclinic box = (-0.0410182 -0.0410182 -0.0410182) to (4.04102 4.04102 4.04102) with tilt (0 0 0)
  restoring pair style smatb from restart
  4 atoms
  read_restart CPU = 0.000170131 secs
include potential.mod
# NOTE: This script can be modified for different pair styles
# See in.elastic for more info.

### Choose potential ###
pair_style	smatb
#pair_coeff 1 1 2.7662 10.7960 3.1976 0.1993 2.2318 4.8745 5.6286
#pair_coeff  id1 id2 atomDiameter p q A Xi cut_start cut_end
pair_coeff 1 1 2.885 10.295370 4.02006 0.205932 1.80239 4.08000612 5.770

# Setup neighbor style
#neighbor 1.0 nsq
#neigh_modify once no every 1 delay 0 check yes

# Setup minimization style
min_style	     cg
min_modify	     dmax 0.01 line quadratic

# Setup output
thermo		1
thermo_style custom step temp pe press pxx pyy pzz pxy pxz pyz lx ly lz vol
thermo_modify norm no

# Positive deformation

variable delta equal 1e-06*4.08203642042074
variable deltaxy equal 1e-06*xy
variable deltaxz equal 1e-06*xz
variable deltayz equal 1e-06*yz
change_box all xz delta 4.08203642042074e-06 remap units box
  triclinic box = (-0.0410182 -0.0410182 -0.0410182) to (4.04102 4.04102 4.04102) with tilt (0 4.08204e-06 0)

# Relax atoms positions

minimize 0 1e-25 5000 10000
  update every 1 steps, delay 0 steps, check yes
Step Temp PotEng Press Pxx Pyy Pzz Pxy Pxz Pyz Lx Ly Lz Volume
5000            0   -15.240188 4.9727166e-05 4.8943916e-05 5.5159072e-05 4.5078509e-05 -2.0793712e-05  -0.44494786 -3.6258655e-06    4.0820364    4.0820364    4.0820364     68.01906
Loop time of 0.000396411 on 1 procs for 10 steps with 4 atoms

Minimization stats:
  Stopping criterion = quadratic factors are zero
  Energy initial, next-to-last, final =
  Force two-norm initial, final = 6.10858e-05 2.94634e-15
  Force max component initial, final = 3.27969e-05 1.50574e-15
  Final line search alpha, max atom move = 1 1.50574e-15
  Iterations, force evaluations = 10 20

# Obtain new stress tensor

variable tmp equal pe
variable e1 equal -15.2401876839493
variable tmp equal press
variable p1 equal 1.65490535178465e-06
variable tmp equal pxx
variable pxx1 equal 1.9267825866116e-06
variable tmp equal pyy
variable pyy1 equal 3.83613816190035e-07
variable tmp equal pzz
variable pzz1 equal 2.65431965255231e-06
variable tmp equal pxy
variable pxy1 equal 2.45166562570872e-13
variable tmp equal pxz
variable pxz1 equal -0.444947450228243
variable tmp equal pyz
variable pyz1 equal 3.26888750094497e-13

# Compute elastic constant from pressure tensor

variable C1pos equal -0.000192653000376051
variable C2pos equal -3.83360763436368e-05
variable C3pos equal -0.000265398888199831
variable C4pos equal 3.67749843856308e-11
variable C5pos equal 44.4947450227548
variable C6pos equal 2.94404180553856e-09

# Combine positive and negative

variable C15 equal 0.5*(0.000192632557570842+-0.000192653000376051)
variable C25 equal 0.5*(3.83217872191483e-05+-3.83360763436368e-05)
variable C35 equal 0.5*(0.000265386294810733+-0.000265398888199831)
variable C45 equal 0.5*(1.63444375047248e-10+3.67749843856308e-11)
variable C55 equal 0.5*(44.4947450226936+44.4947450227548)
variable C65 equal 0.5*(-3.23006946187125e-09+2.94404180553856e-09)

# Delete dir to make sure it is not reused

variable dir delete

# uxy Perturbation

variable dir equal 6
include displace.mod
# NOTE: This script should not need to be
# modified. See in.elastic for more info.
#
# Find which reference length to use

variable len0 equal 4.08203642042074

# Reset box and simulation parameters

clear
box tilt large
read_restart restart.equil
  restoring atom style atomic from restart
  triclinic box = (-0.0410182 -0.0410182 -0.0410182) to (4.04102 4.04102 4.04102) with tilt (0 0 0)
  restoring pair style smatb from restart
  4 atoms
  read_restart CPU = 0.000160559 secs
include potential.mod
# NOTE: This script can be modified for different pair styles
# See in.elastic for more info.

### Choose potential ###
pair_style	smatb
#pair_coeff 1 1 2.7662 10.7960 3.1976 0.1993 2.2318 4.8745 5.6286
#pair_coeff  id1 id2 atomDiameter p q A Xi cut_start cut_end
pair_coeff 1 1 2.885 10.295370 4.02006 0.205932 1.80239 4.08000612 5.770

# Setup neighbor style
#neighbor 1.0 nsq
#neigh_modify once no every 1 delay 0 check yes

# Setup minimization style
min_style	     cg
min_modify	     dmax 0.01 line quadratic

# Setup output
thermo		1
thermo_style custom step temp pe press pxx pyy pzz pxy pxz pyz lx ly lz vol
thermo_modify norm no

# Negative deformation

variable delta equal -1e-06*4.08203642042074
variable deltaxy equal -1e-06*xy
variable deltaxz equal -1e-06*xz
variable deltayz equal -1e-06*yz
change_box all xy delta -4.08203642042074e-06 remap units box
  triclinic box = (-0.0410182 -0.0410182 -0.0410182) to (4.04102 4.04102 4.04102) with tilt (-4.08204e-06 0 0)

# Relax atoms positions

minimize 0 1e-25 5000 10000
  update every 1 steps, delay 0 steps, check yes
Step Temp PotEng Press Pxx Pyy Pzz Pxy Pxz Pyz Lx Ly Lz Volume
5000            0   -15.240188 4.9726981e-05 4.8943585e-05 5.7429685e-05 4.2807674e-05   0.44492666 -4.0492175e-07 -3.6257815e-06    4.0820364    4.0820364    4.0820364     68.01906
Loop time of 0.000298018 on 1 procs for 7 steps with 4 atoms

Minimization stats:
  Stopping criterion = quadratic factors are zero
  Energy initial, next-to-last, final =
  Force two-norm initial, final = 6.10856e-05 2.99225e-15
  Force max component initial, final = 3.27968e-05 1.46064e-15
  Final line search alpha, max atom move = 1 1.46064e-15
  Iterations, force evaluations = 7 14

# Obtain new stress tensor

variable tmp equal pxx
variable pxx1 equal 1.92664811275203e-06
variable tmp equal pyy
variable pyy1 equal 2.65419032719055e-06
variable tmp equal pzz
variable pzz1 equal 3.83684322007321e-07
variable tmp equal pxy
variable pxy1 equal 0.444947450197373
variable tmp equal pxz
variable pxz1 equal 0
variable tmp equal pyz
variable pyz1 equal 6.94638593950805e-13

# Compute elastic constant from pressure tensor

variable C1neg equal 0.000192639552990094
variable C2neg equal 0.000265393727443688
variable C3neg equal 3.83353551453319e-05
variable C4neg equal 0
variable C5neg equal 6.94638593950805e-11
variable C6neg equal 44.4947450167687

# Reset box and simulation parameters

clear
box tilt large
read_restart restart.equil
  restoring atom style atomic from restart
  triclinic box = (-0.0410182 -0.0410182 -0.0410182) to (4.04102 4.04102 4.04102) with tilt (0 0 0)
  restoring pair style smatb from restart
  4 atoms
  read_restart CPU = 0.000164861 secs
include potential.mod
# NOTE: This script can be modified for different pair styles
# See in.elastic for more info.

### Choose potential ###
pair_style	smatb
#pair_coeff 1 1 2.7662 10.7960 3.1976 0.1993 2.2318 4.8745 5.6286
#pair_coeff  id1 id2 atomDiameter p q A Xi cut_start cut_end
pair_coeff 1 1 2.885 10.295370 4.02006 0.205932 1.80239 4.08000612 5.770

# Setup neighbor style
#neighbor 1.0 nsq
#neigh_modify once no every 1 delay 0 check yes

# Setup minimization style
min_style	     cg
min_modify	     dmax 0.01 line quadratic

# Setup output
thermo		1
thermo_style custom step temp pe press pxx pyy pzz pxy pxz pyz lx ly lz vol
thermo_modify norm no

# Positive deformation

variable delta equal 1e-06*4.08203642042074
variable deltaxy equal 1e-06*xy
variable deltaxz equal 1e-06*xz
variable deltayz equal 1e-06*yz
change_box all xy delta 4.08203642042074e-06 remap units box
  triclinic box = (-0.0410182 -0.0410182 -0.0410182) to (4.04102 4.04102 4.04102) with tilt (4.08204e-06 0 0)

# Relax atoms positions

minimize 0 1e-25 5000 10000
  update every 1 steps, delay 0 steps, check yes
Step Temp PotEng Press Pxx Pyy Pzz Pxy Pxz Pyz Lx Ly Lz Volume
5000            0   -15.240188 4.972754e-05 4.8944294e-05 5.7430263e-05 4.2808064e-05  -0.44496824 -4.0484097e-07 -3.6259412e-06    4.0820364    4.0820364    4.0820364     68.01906
Loop time of 0.000404231 on 1 procs for 10 steps with 4 atoms

Minimization stats:
  Stopping criterion = quadratic factors are zero
  Energy initial, next-to-last, final =
  Force two-norm initial, final = 6.1086e-05 3.18549e-15
  Force max component initial, final = 3.2797e-05 2.13024e-15
  Final line search alpha, max atom move = 1 2.13024e-15
  Iterations, force evaluations = 10 20

# Obtain new stress tensor

variable tmp equal pe
variable e1 equal -15.2401876839493
variable tmp equal press
variable p1 equal 1.65473423914434e-06
variable tmp equal pxx
variable pxx1 equal 1.92657119174302e-06
variable tmp equal pyy
variable pyy1 equal 2.65411506105584e-06
variable tmp equal pzz
variable pzz1 equal 3.83516464634148e-07
variable tmp equal pxy
variable pxy1 equal -0.444947450200744
variable tmp equal pxz
variable pxz1 equal 2.08391578185242e-11
variable tmp equal pyz
variable pyz1 equal -2.81941546956503e-12

# Compute elastic constant from pressure tensor

variable C1pos equal -0.000192631860889193
variable C2pos equal -0.000265386200830217
variable C3pos equal -3.83185694080146e-05
variable C4pos equal 3.51405406351584e-10
variable C5pos equal -2.1533796412475e-09
variable C6pos equal 44.494745023043

# Combine positive and negative

variable C16 equal 0.5*(0.000192639552990094+-0.000192631860889193)
variable C26 equal 0.5*(0.000265393727443688+-0.000265386200830217)
variable C36 equal 0.5*(3.83353551453319e-05+-3.83185694080146e-05)
variable C46 equal 0.5*(0+3.51405406351584e-10)
variable C56 equal 0.5*(6.94638593950805e-11+-2.1533796412475e-09)
variable C66 equal 0.5*(44.4947450167687+44.494745023043)

# Delete dir to make sure it is not reused

variable dir delete

# Output final values

variable C11all equal 186.428199571709
variable C22all equal 186.428199578774
variable C33all equal 186.428199587357

variable C12all equal 0.5*(153.965926631465+153.965926632904)
variable C13all equal 0.5*(153.96592664334+153.965926624748)
variable C23all equal 0.5*(153.965926641004+153.965926637237)

variable C44all equal 44.4947450186198
variable C55all equal 44.4947450227242
variable C66all equal 44.4947450199058

variable C14all equal 0.5*(4.65816468849591e-10+8.78514476115544e-11)
variable C15all equal 0.5*(-1.02214026045103e-08+2.69683492597558e-10)
variable C16all equal 0.5*(3.84605045050277e-09+-2.9011400678961e-10)

variable C24all equal 0.5*(1.89799780501098e-09+-2.69683220462673e-09)
variable C25all equal 0.5*(-7.1445622442504e-09+1.61401163044108e-10)
variable C26all equal 0.5*(3.76330673551974e-09+3.9839790132295e-11)

variable C34all equal 0.5*(2.08800189147713e-09+1.14411160599813e-10)
variable C35all equal 0.5*(-6.2966945489878e-09+1.979718021214e-09)
variable C36all equal 0.5*(8.39286865865003e-09+-9.398065049387e-11)

variable C45all equal 0.5*(1.00109679716439e-10+-8.1722187523624e-12)
variable C46all equal 0.5*(1.75702703175792e-10+1.5220757426275e-10)
variable C56all equal 0.5*(-1.04195789092621e-09+-1.43013828166345e-10)

# Average moduli for cubic crystals

variable C11cubic equal (186.428199571709+186.428199578774+186.428199587357)/3.0
variable C12cubic equal (153.965926632185+153.965926634044+153.96592663912)/3.0
variable C44cubic equal (44.4947450186198+44.4947450227242+44.4947450199058)/3.0

variable bulkmodulus equal (186.42819957928+2*153.965926635116)/3.0
variable shearmodulus1 equal 44.4947450204166
variable shearmodulus2 equal (186.42819957928-153.965926635116)/2.0
variable poissonratio equal 1.0/(1.0+186.42819957928/153.965926635116)

# For Stillinger-Weber silicon, the analytical results
# are known to be (E. R. Cowley, 1988):
#               C11 = 151.4 GPa
#               C12 = 76.4 GPa
#               C44 = 56.4 GPa

print "========================================="
=========================================
print "Components of the Elastic Constant Tensor"
Components of the Elastic Constant Tensor
print "========================================="
=========================================

Elastic Constant C11all = 186.428199571709 GPa
Elastic Constant C22all = 186.428199578774 GPa
Elastic Constant C33all = 186.428199587357 GPa

Elastic Constant C12all = 153.965926632185 GPa
Elastic Constant C13all = 153.965926634044 GPa
Elastic Constant C23all = 153.96592663912 GPa

Elastic Constant C44all = 44.4947450186198 GPa
Elastic Constant C55all = 44.4947450227242 GPa
Elastic Constant C66all = 44.4947450199058 GPa

Elastic Constant C14all = 2.76833958230573e-10 GPa
Elastic Constant C15all = -4.97585955595637e-09 GPa
Elastic Constant C16all = 1.77796822185658e-09 GPa

Elastic Constant C24all = -3.99417199807875e-10 GPa
Elastic Constant C25all = -3.49158054060315e-09 GPa
Elastic Constant C26all = 1.90157326282602e-09 GPa

Elastic Constant C34all = 1.10120652603847e-09 GPa
Elastic Constant C35all = -2.1584882638869e-09 GPa
Elastic Constant C36all = 4.14944400407808e-09 GPa

Elastic Constant C45all = 4.59687304820383e-11 GPa
Elastic Constant C46all = 1.63955138719271e-10 GPa
Elastic Constant C56all = -5.92485859546277e-10 GPa

print "========================================="
=========================================
print "Average properties for a cubic crystal"
Average properties for a cubic crystal
print "========================================="
=========================================

Bulk Modulus = 164.786684283171 GPa
Shear Modulus 1 = 44.4947450204166 GPa
Shear Modulus 2 = 16.231136472082 GPa
Poisson Ratio = 0.452316637620654
